#======================================================================

# CRYSTAL DATA

#----------------------------------------------------------------------

data_VESTA_phase_1


_chemical_name_common                  'a4 x12 b4'
_cell_length_a                         5.73600
_cell_length_b                         5.73600
_cell_length_c                         8.11200
_cell_angle_alpha                      90
_cell_angle_beta                       90
_cell_angle_gamma                      90
_space_group_name_H-M_alt              'P 1'
_space_group_IT_number                 1

loop_
_space_group_symop_operation_xyz
   'x, y, z'

loop_
   _atom_site_label
   _atom_site_occupancy
   _atom_site_fract_x
   _atom_site_fract_y
   _atom_site_fract_z
   _atom_site_adp_type
   _atom_site_B_iso_or_equiv
   _atom_site_type_symbol
   A0         1.0     0.000000      0.000000      0.250000     Biso  1.000000 A
   A1         1.0     0.500000      0.500000      0.250000     Biso  1.000000 A
   A2         1.0     0.500000      0.500000      0.750000     Biso  1.000000 A
   A3         1.0     0.000000      0.000000      0.750000     Biso  1.000000 A
   B4         1.0     0.000000      0.500000      0.000000     Biso  1.000000 B
   B5         1.0     0.500000      0.000000      0.000000     Biso  1.000000 B
   B6         1.0     0.500000      0.000000      0.500000     Biso  1.000000 B
   B7         1.0     0.000000      0.500000      0.500000     Biso  1.000000 B
   X8         1.0     0.268000      0.732000      0.026000     Biso  1.000000 X
   X9         1.0     0.732000      0.268000      0.974000     Biso  1.000000 X
   X10        1.0     0.732000      0.268000      0.526000     Biso  1.000000 X
   X11        1.0     0.268000      0.732000      0.474000     Biso  1.000000 X
   X12        1.0     0.768000      0.768000      0.974000     Biso  1.000000 X
   X13        1.0     0.232000      0.232000      0.026000     Biso  1.000000 X
   X14        1.0     0.232000      0.232000      0.474000     Biso  1.000000 X
   X15        1.0     0.768000      0.768000      0.526000     Biso  1.000000 X
   X16        1.0     0.963000      0.518000      0.250000     Biso  1.000000 X
   X17        1.0     0.537000      0.018000      0.250000     Biso  1.000000 X
   X18        1.0     0.463000      0.982000      0.750000     Biso  1.000000 X
   X19        1.0     0.037000      0.482000      0.750000     Biso  1.000000 X
